Circuit: * H:\Documents\GitHub\MiniRIB-USB\sim\mosfet-datalines.asc

Direct Newton iteration failed to find .op point.  (Use ".option noopiter" to skip.)
Starting Gmin stepping
Gmin = 10
Gmin = 1.07374
Gmin = 0.115292
Gmin = 0.0123794
Gmin = 0.00132923
Gmin = 0.000142725
Gmin = 1.5325e-005
Gmin = 1.6455e-006
Gmin = 1.76685e-007
Gmin = 1.89714e-008
Gmin = 2.03704e-009
Gmin = 2.18725e-010
Gmin = 2.34854e-011
Gmin = 2.52173e-012
Gmin = 2.70769e-013
Gmin = 0
Gmin stepping succeeded in finding the operating point.


Date: Mon Apr 17 22:21:33 2023
Total elapsed time: 0.289 seconds.

tnom = 27
temp = 27
method = modified trap
totiter = 31888
traniter = 31458
tranpoints = 9017
accept = 6815
rejected = 2202
matrix size = 56
fillins = 17
solver = Normal
Matrix Compiler1: 4.20 KB object code size  0.7/0.4/[0.3]
Matrix Compiler2: 5.08 KB object code size  0.5/0.6/[0.3]

