Circuit: * H:\Documents\GitHub\MiniRIB-USB\sim\mosfet-datalines.asc

Direct Newton iteration failed to find .op point.  (Use ".option noopiter" to skip.)
Starting Gmin stepping
Gmin = 10
Gmin = 1.07374
Gmin = 0.115292
Gmin = 0.0123794
Gmin = 0.00132923
Gmin = 0.000142725
Gmin = 1.5325e-005
Gmin = 1.6455e-006
Gmin = 1.76685e-007
Gmin = 1.89714e-008
Gmin = 2.03704e-009
Gmin = 2.18725e-010
Gmin = 2.34854e-011
Gmin = 2.52173e-012
Gmin = 2.70769e-013
Gmin = 0
Gmin stepping succeeded in finding the operating point.


Date: Tue Mar 28 22:25:26 2023
Total elapsed time: 0.359 seconds.

tnom = 27
temp = 27
method = modified trap
totiter = 36133
traniter = 35724
tranpoints = 10435
accept = 7759
rejected = 2676
matrix size = 59
fillins = 18
solver = Normal
Matrix Compiler1: 4.30 KB object code size  0.6/0.3/[0.3]
Matrix Compiler2: 5.31 KB object code size  0.5/0.6/[0.3]

