Circuit: * H:\Documents\GitHub\MiniRIB-USB\sim\mosfet-datalines.asc

Direct Newton iteration failed to find .op point.  (Use ".option noopiter" to skip.)
Starting Gmin stepping
Gmin = 10
Gmin = 1.07374
Gmin = 0.115292
Gmin = 0.0123794
Gmin = 0.00132923
Gmin = 0.000142725
Gmin = 1.5325e-005
Gmin = 1.6455e-006
Gmin = 1.76685e-007
Gmin = 1.89714e-008
Gmin = 2.03704e-009
Gmin = 2.18725e-010
Gmin = 2.34854e-011
Gmin = 2.52173e-012
Gmin = 2.70769e-013
Gmin = 0
Gmin stepping succeeded in finding the operating point.


Date: Wed Apr 12 09:38:58 2023
Total elapsed time: 0.309 seconds.

tnom = 27
temp = 27
method = modified trap
totiter = 34512
traniter = 34036
tranpoints = 9673
accept = 7183
rejected = 2490
matrix size = 61
fillins = 26
solver = Normal
Matrix Compiler1: 4.78 KB object code size  0.7/0.4/[0.3]
Matrix Compiler2: 5.58 KB object code size  0.5/0.6/[0.3]

