Circuit: * H:\Documents\GitHub\MiniRIB-USB\sim\rx-sim.asc

Limiting rise time of source v3 to 0.0001
Limiting fall time of source v3 to 0.0001
Limiting rise time of source v2 to 0.0001
Limiting fall time of source v2 to 0.0001
Direct Newton iteration for .op point succeeded.

Date: Tue Jan 04 13:22:25 2022
Total elapsed time: 0.073 seconds.

tnom = 27
temp = 27
method = modified trap
totiter = 5143
traniter = 5125
tranpoints = 1925
accept = 1665
rejected = 260
matrix size = 17
fillins = 0
solver = Normal
Matrix Compiler1: 910 bytes object code size  0.2/0.1/[0.1]
Matrix Compiler2: off  [0.1]/0.2/0.1

